*SPEF "IEEE 1481-1998"
*DESIGN "IIR_filter"
*DATE "Fri Nov 19 20:38:33 2021"
*VENDOR "Cadence Design Systems, Inc."
*PROGRAM "Innovus"
*VERSION "17.11-s080_1"
*DESIGN_FLOW "COUPLING C" "PIN_CAP NONE" "NAME_SCOPE LOCAL"
*DIVIDER /
*DELIMITER :
*BUS_DELIMITER []
*T_UNIT 1 NS
*C_UNIT 1 PF
*R_UNIT 1 OHM
*L_UNIT 1 HENRY

// MMMC spef file for corner 'my_rc'

*NAME_MAP

*1 CLK
*2 RST_n
*3 VIN
*4 VOUT
*5 DIN[13]
*6 DIN[12]
*7 DIN[11]
*8 DIN[10]
*9 DIN[9]
*10 DIN[8]
*11 DIN[7]
*12 DIN[6]
*13 DIN[5]
*14 DIN[4]
*15 DIN[3]
*16 DIN[2]
*17 DIN[1]
*18 DIN[0]
*19 A_1[13]
*20 A_1[12]
*21 A_1[11]
*22 A_1[10]
*23 A_1[9]
*24 A_1[8]
*25 A_1[7]
*26 A_1[6]
*27 A_1[5]
*28 A_1[4]
*29 A_1[3]
*30 A_1[2]
*31 A_1[1]
*32 A_1[0]
*33 B_0[13]
*34 B_0[12]
*35 B_0[11]
*36 B_0[10]
*37 B_0[9]
*38 B_0[8]
*39 B_0[7]
*40 B_0[6]
*41 B_0[5]
*42 B_0[4]
*43 B_0[3]
*44 B_0[2]
*45 B_0[1]
*46 B_0[0]
*47 B_1[13]
*48 B_1[12]
*49 B_1[11]
*50 B_1[10]
*51 B_1[9]
*52 B_1[8]
*53 B_1[7]
*54 B_1[6]
*55 B_1[5]
*56 B_1[4]
*57 B_1[3]
*58 B_1[2]
*59 B_1[1]
*60 B_1[0]
*61 DOUT[13]
*62 DOUT[12]
*63 DOUT[11]
*64 DOUT[10]
*65 DOUT[9]
*66 DOUT[8]
*67 DOUT[7]
*68 DOUT[6]
*69 DOUT[5]
*70 DOUT[4]
*71 DOUT[3]
*72 DOUT[2]
*73 DOUT[1]
*74 DOUT[0]
*75 FE_OFN0_VIN
*76 FE_DBTN0_P2_0
*77 RC1out
*78 fullFILTER
*79 R_Control_1_n3
*80 R_Control_1_n2
*81 R_Control_1_n1
*82 R_Control_2_n6
*83 R_Control_2_n5
*84 R_Control_2_n4
*85 RIN_n42
*86 RIN_n41
*87 RIN_n40
*88 RIN_n39
*89 RIN_n38
*90 RIN_n37
*91 RIN_n36
*92 RIN_n35
*93 RIN_n34
*94 RIN_n33
*95 RIN_n32
*96 RIN_n31
*97 RIN_n30
*98 RIN_n29
*99 RIN_n28
*100 RIN_n27
*101 RIN_n26
*102 RIN_n25
*103 RIN_n24
*104 RIN_n23
*105 RIN_n22
*106 RIN_n21
*107 RIN_n20
*108 RIN_n19
*109 RIN_n18
*110 RIN_n17
*111 RIN_n16
*112 RIN_n15
*113 RIN_n14
*114 RIN_n13
*115 RIN_n12
*116 RIN_n11
*117 RIN_n10
*118 RIN_n9
*119 RIN_n8
*120 RIN_n7
*121 RIN_n6
*122 RIN_n5
*123 RIN_n4
*124 RIN_n3
*125 RIN_n2
*126 RIN_n1
*127 R1_n45
*128 R1_n44
*129 R1_n43
*130 R1_n42
*131 R1_n41
*132 R1_n40
*133 R1_n39
*134 R1_n38
*135 R1_n37
*136 R1_n36
*137 R1_n35
*138 R1_n34
*139 R1_n33
*140 R1_n32
*141 R1_n31
*142 R1_n30
*143 R1_n29
*144 R1_n28
*145 R1_n27
*146 R1_n26
*147 R1_n25
*148 R1_n24
*149 R1_n23
*150 R1_n22
*151 R1_n21
*152 R1_n20
*153 R1_n19
*154 R1_n18
*155 R1_n17
*156 R1_n16
*157 R1_n15
*158 R1_n14
*159 R1_n13
*160 R1_n12
*161 R1_n11
*162 R1_n10
*163 R1_n9
*164 R1_n8
*165 R1_n7
*166 R1_n6
*167 R1_n5
*168 R1_n4
*169 R1_n3
*170 R1_n2
*171 R1_n1
*172 ROUT_n89
*173 ROUT_n88
*174 ROUT_n87
*175 ROUT_n86
*176 ROUT_n85
*177 ROUT_n84
*178 ROUT_n83
*179 ROUT_n82
*180 ROUT_n81
*181 ROUT_n80
*182 ROUT_n79
*183 ROUT_n78
*184 ROUT_n77
*185 ROUT_n76
*186 ROUT_n75
*187 ROUT_n74
*188 ROUT_n73
*189 ROUT_n72
*190 ROUT_n71
*191 ROUT_n70
*192 ROUT_n69
*193 ROUT_n68
*194 ROUT_n67
*195 ROUT_n66
*196 ROUT_n65
*197 ROUT_n64
*198 ROUT_n63
*199 ROUT_n62
*200 ROUT_n61
*201 ROUT_n60
*202 ROUT_n59
*203 ROUT_n58
*204 ROUT_n57
*205 ROUT_n56
*206 ROUT_n55
*207 ROUT_n54
*208 ROUT_n53
*209 ROUT_n52
*210 ROUT_n51
*211 ROUT_n50
*212 ROUT_n49
*213 ROUT_n48
*214 S1_sub_17_n15
*215 S1_sub_17_n14
*216 S1_sub_17_n13
*217 S1_sub_17_n12
*218 S1_sub_17_n11
*219 S1_sub_17_n10
*220 S1_sub_17_n9
*221 S1_sub_17_n8
*222 S1_sub_17_n7
*223 S1_sub_17_n6
*224 S1_sub_17_n5
*225 S1_sub_17_n4
*226 S1_sub_17_n3
*227 S1_sub_17_n2
*228 S1_sub_17_n1
*229 A1_add_17_n5
*230 A1_add_17_n4
*231 A1_add_17_n3
*232 A1_add_17_n2
*233 M1_MULT_0_
*234 M1_MULT_27_
*235 M1_mult_17_n763
*236 M1_mult_17_n762
*237 M1_mult_17_n761
*238 M1_mult_17_n760
*239 M1_mult_17_n759
*240 M1_mult_17_n758
*241 M1_mult_17_n757
*242 M1_mult_17_n756
*243 M1_mult_17_n755
*244 M1_mult_17_n754
*245 M1_mult_17_n753
*246 M1_mult_17_n752
*247 M1_mult_17_n751
*248 M1_mult_17_n750
*249 M1_mult_17_n749
*250 M1_mult_17_n748
*251 M1_mult_17_n747
*252 M1_mult_17_n746
*253 M1_mult_17_n745
*254 M1_mult_17_n744
*255 M1_mult_17_n743
*256 M1_mult_17_n742
*257 M1_mult_17_n741
*258 M1_mult_17_n740
*259 M1_mult_17_n739
*260 M1_mult_17_n738
*261 M1_mult_17_n737
*262 M1_mult_17_n736
*263 M1_mult_17_n735
*264 M1_mult_17_n734
*265 M1_mult_17_n733
*266 M1_mult_17_n732
*267 M1_mult_17_n731
*268 M1_mult_17_n730
*269 M1_mult_17_n729
*270 M1_mult_17_n728
*271 M1_mult_17_n727
*272 M1_mult_17_n726
*273 M1_mult_17_n725
*274 M1_mult_17_n724
*275 M1_mult_17_n723
*276 M1_mult_17_n722
*277 M1_mult_17_n721
*278 M1_mult_17_n720
*279 M1_mult_17_n719
*280 M1_mult_17_n718
*281 M1_mult_17_n717
*282 M1_mult_17_n716
*283 M1_mult_17_n715
*284 M1_mult_17_n714
*285 M1_mult_17_n713
*286 M1_mult_17_n712
*287 M1_mult_17_n711
*288 M1_mult_17_n710
*289 M1_mult_17_n709
*290 M1_mult_17_n708
*291 M1_mult_17_n707
*292 M1_mult_17_n706
*293 M1_mult_17_n705
*294 M1_mult_17_n704
*295 M1_mult_17_n703
*296 M1_mult_17_n702
*297 M1_mult_17_n701
*298 M1_mult_17_n700
*299 M1_mult_17_n699
*300 M1_mult_17_n698
*301 M1_mult_17_n697
*302 M1_mult_17_n696
*303 M1_mult_17_n695
*304 M1_mult_17_n694
*305 M1_mult_17_n693
*306 M1_mult_17_n692
*307 M1_mult_17_n691
*308 M1_mult_17_n690
*309 M1_mult_17_n689
*310 M1_mult_17_n688
*311 M1_mult_17_n687
*312 M1_mult_17_n686
*313 M1_mult_17_n685
*314 M1_mult_17_n684
*315 M1_mult_17_n683
*316 M1_mult_17_n682
*317 M1_mult_17_n681
*318 M1_mult_17_n680
*319 M1_mult_17_n679
*320 M1_mult_17_n678
*321 M1_mult_17_n677
*322 M1_mult_17_n676
*323 M1_mult_17_n675
*324 M1_mult_17_n674
*325 M1_mult_17_n673
*326 M1_mult_17_n672
*327 M1_mult_17_n671
*328 M1_mult_17_n670
*329 M1_mult_17_n669
*330 M1_mult_17_n668
*331 M1_mult_17_n667
*332 M1_mult_17_n666
*333 M1_mult_17_n665
*334 M1_mult_17_n664
*335 M1_mult_17_n663
*336 M1_mult_17_n662
*337 M1_mult_17_n661
*338 M1_mult_17_n660
*339 M1_mult_17_n659
*340 M1_mult_17_n658
*341 M1_mult_17_n657
*342 M1_mult_17_n656
*343 M1_mult_17_n655
*344 M1_mult_17_n654
*345 M1_mult_17_n653
*346 M1_mult_17_n652
*347 M1_mult_17_n651
*348 M1_mult_17_n650
*349 M1_mult_17_n649
*350 M1_mult_17_n648
*351 M1_mult_17_n647
*352 M1_mult_17_n646
*353 M1_mult_17_n645
*354 M1_mult_17_n644
*355 M1_mult_17_n643
*356 M1_mult_17_n642
*357 M1_mult_17_n641
*358 M1_mult_17_n640
*359 M1_mult_17_n639
*360 M1_mult_17_n638
*361 M1_mult_17_n637
*362 M1_mult_17_n636
*363 M1_mult_17_n635
*364 M1_mult_17_n634
*365 M1_mult_17_n633
*366 M1_mult_17_n632
*367 M1_mult_17_n631
*368 M1_mult_17_n630
*369 M1_mult_17_n629
*370 M1_mult_17_n628
*371 M1_mult_17_n627
*372 M1_mult_17_n626
*373 M1_mult_17_n625
*374 M1_mult_17_n624
*375 M1_mult_17_n623
*376 M1_mult_17_n622
*377 M1_mult_17_n621
*378 M1_mult_17_n620
*379 M1_mult_17_n619
*380 M1_mult_17_n618
*381 M1_mult_17_n617
*382 M1_mult_17_n616
*383 M1_mult_17_n615
*384 M1_mult_17_n614
*385 M1_mult_17_n613
*386 M1_mult_17_n612
*387 M1_mult_17_n611
*388 M1_mult_17_n610
*389 M1_mult_17_n609
*390 M1_mult_17_n608
*391 M1_mult_17_n607
*392 M1_mult_17_n606
*393 M1_mult_17_n605
*394 M1_mult_17_n604
*395 M1_mult_17_n603
*396 M1_mult_17_n602
*397 M1_mult_17_n601
*398 M1_mult_17_n600
*399 M1_mult_17_n599
*400 M1_mult_17_n598
*401 M1_mult_17_n597
*402 M1_mult_17_n596
*403 M1_mult_17_n595
*404 M1_mult_17_n594
*405 M1_mult_17_n593
*406 M1_mult_17_n592
*407 M1_mult_17_n591
*408 M1_mult_17_n590
*409 M1_mult_17_n589
*410 M1_mult_17_n588
*411 M1_mult_17_n587
*412 M1_mult_17_n586
*413 M1_mult_17_n585
*414 M1_mult_17_n584
*415 M1_mult_17_n583
*416 M1_mult_17_n582
*417 M1_mult_17_n581
*418 M1_mult_17_n356
*419 M1_mult_17_n355
*420 M1_mult_17_n354
*421 M1_mult_17_n353
*422 M1_mult_17_n352
*423 M1_mult_17_n351
*424 M1_mult_17_n350
*425 M1_mult_17_n349
*426 M1_mult_17_n348
*427 M1_mult_17_n347
*428 M1_mult_17_n346
*429 M1_mult_17_n345
*430 M1_mult_17_n342
*431 M1_mult_17_n341
*432 M1_mult_17_n340
*433 M1_mult_17_n339
*434 M1_mult_17_n338
*435 M1_mult_17_n337
*436 M1_mult_17_n336
*437 M1_mult_17_n335
*438 M1_mult_17_n334
*439 M1_mult_17_n333
*440 M1_mult_17_n332
*441 M1_mult_17_n331
*442 M1_mult_17_n330
*443 M1_mult_17_n329
*444 M1_mult_17_n328
*445 M1_mult_17_n327
*446 M1_mult_17_n326
*447 M1_mult_17_n325
*448 M1_mult_17_n324
*449 M1_mult_17_n323
*450 M1_mult_17_n322
*451 M1_mult_17_n321
*452 M1_mult_17_n320
*453 M1_mult_17_n319
*454 M1_mult_17_n318
*455 M1_mult_17_n316
*456 M1_mult_17_n315
*457 M1_mult_17_n313
*458 M1_mult_17_n312
*459 M1_mult_17_n311
*460 M1_mult_17_n310
*461 M1_mult_17_n309
*462 M1_mult_17_n308
*463 M1_mult_17_n307
*464 M1_mult_17_n306
*465 M1_mult_17_n305
*466 M1_mult_17_n304
*467 M1_mult_17_n303
*468 M1_mult_17_n302
*469 M1_mult_17_n301
*470 M1_mult_17_n300
*471 M1_mult_17_n298
*472 M1_mult_17_n297
*473 M1_mult_17_n296
*474 M1_mult_17_n295
*475 M1_mult_17_n294
*476 M1_mult_17_n293
*477 M1_mult_17_n292
*478 M1_mult_17_n291
*479 M1_mult_17_n290
*480 M1_mult_17_n289
*481 M1_mult_17_n288
*482 M1_mult_17_n287
*483 M1_mult_17_n286
*484 M1_mult_17_n285
*485 M1_mult_17_n283
*486 M1_mult_17_n282
*487 M1_mult_17_n281
*488 M1_mult_17_n280
*489 M1_mult_17_n279
*490 M1_mult_17_n277
*491 M1_mult_17_n276
*492 M1_mult_17_n275
*493 M1_mult_17_n274
*494 M1_mult_17_n273
*495 M1_mult_17_n272
*496 M1_mult_17_n271
*497 M1_mult_17_n270
*498 M1_mult_17_n268
*499 M1_mult_17_n267
*500 M1_mult_17_n266
*501 M1_mult_17_n265
*502 M1_mult_17_n264
*503 M1_mult_17_n263
*504 M1_mult_17_n262
*505 M1_mult_17_n261
*506 M1_mult_17_n260
*507 M1_mult_17_n259
*508 M1_mult_17_n258
*509 M1_mult_17_n257
*510 M1_mult_17_n256
*511 M1_mult_17_n255
*512 M1_mult_17_n251
*513 M1_mult_17_n250
*514 M1_mult_17_n249
*515 M1_mult_17_n248
*516 M1_mult_17_n247
*517 M1_mult_17_n225
*518 M1_mult_17_n224
*519 M1_mult_17_n223
*520 M1_mult_17_n222
*521 M1_mult_17_n221
*522 M1_mult_17_n220
*523 M1_mult_17_n219
*524 M1_mult_17_n218
*525 M1_mult_17_n217
*526 M1_mult_17_n216
*527 M1_mult_17_n215
*528 M1_mult_17_n214
*529 M1_mult_17_n213
*530 M1_mult_17_n212
*531 M1_mult_17_n211
*532 M1_mult_17_n210
*533 M1_mult_17_n209
*534 M1_mult_17_n208
*535 M1_mult_17_n207
*536 M1_mult_17_n206
*537 M1_mult_17_n205
*538 M1_mult_17_n204
*539 M1_mult_17_n203
*540 M1_mult_17_n202
*541 M1_mult_17_n201
*542 M1_mult_17_n200
*543 M1_mult_17_n199
*544 M1_mult_17_n198
*545 M1_mult_17_n197
*546 M1_mult_17_n196
*547 M1_mult_17_n195
*548 M1_mult_17_n194
*549 M1_mult_17_n193
*550 M1_mult_17_n192
*551 M1_mult_17_n191
*552 M1_mult_17_n190
*553 M1_mult_17_n189
*554 M1_mult_17_n188
*555 M1_mult_17_n187
*556 M1_mult_17_n186
*557 M1_mult_17_n185
*558 M1_mult_17_n184
*559 M1_mult_17_n183
*560 M1_mult_17_n182
*561 M1_mult_17_n181
*562 M1_mult_17_n180
*563 M1_mult_17_n179
*564 M1_mult_17_n178
*565 M1_mult_17_n177
*566 M1_mult_17_n176
*567 M1_mult_17_n175
*568 M1_mult_17_n174
*569 M1_mult_17_n173
*570 M1_mult_17_n172
*571 M1_mult_17_n171
*572 M1_mult_17_n170
*573 M1_mult_17_n169
*574 M1_mult_17_n168
*575 M1_mult_17_n167
*576 M1_mult_17_n166
*577 M1_mult_17_n165
*578 M1_mult_17_n164
*579 M1_mult_17_n163
*580 M1_mult_17_n162
*581 M1_mult_17_n161
*582 M1_mult_17_n160
*583 M1_mult_17_n159
*584 M1_mult_17_n158
*585 M1_mult_17_n157
*586 M1_mult_17_n156
*587 M1_mult_17_n155
*588 M1_mult_17_n154
*589 M1_mult_17_n153
*590 M1_mult_17_n152
*591 M1_mult_17_n151
*592 M1_mult_17_n150
*593 M1_mult_17_n149
*594 M1_mult_17_n148
*595 M1_mult_17_n147
*596 M1_mult_17_n146
*597 M1_mult_17_n145
*598 M1_mult_17_n144
*599 M1_mult_17_n143
*600 M1_mult_17_n142
*601 M1_mult_17_n141
*602 M1_mult_17_n140
*603 M1_mult_17_n139
*604 M1_mult_17_n138
*605 M1_mult_17_n137
*606 M1_mult_17_n136
*607 M1_mult_17_n135
*608 M1_mult_17_n134
*609 M1_mult_17_n133
*610 M1_mult_17_n132
*611 M1_mult_17_n131
*612 M1_mult_17_n130
*613 M1_mult_17_n128
*614 M1_mult_17_n127
*615 M1_mult_17_n126
*616 M1_mult_17_n125
*617 M1_mult_17_n124
*618 M1_mult_17_n123
*619 M1_mult_17_n122
*620 M1_mult_17_n121
*621 M1_mult_17_n120
*622 M1_mult_17_n119
*623 M1_mult_17_n118
*624 M1_mult_17_n117
*625 M1_mult_17_n116
*626 M1_mult_17_n115
*627 M1_mult_17_n114
*628 M1_mult_17_n113
*629 M1_mult_17_n112
*630 M1_mult_17_n111
*631 M1_mult_17_n110
*632 M1_mult_17_n109
*633 M1_mult_17_n108
*634 M1_mult_17_n106
*635 M1_mult_17_n105
*636 M1_mult_17_n104
*637 M1_mult_17_n103
*638 M1_mult_17_n102
*639 M1_mult_17_n101
*640 M1_mult_17_n100
*641 M1_mult_17_n99
*642 M1_mult_17_n98
*643 M1_mult_17_n97
*644 M1_mult_17_n96
*645 M1_mult_17_n95
*646 M1_mult_17_n94
*647 M1_mult_17_n93
*648 M1_mult_17_n92
*649 M1_mult_17_n91
*650 M1_mult_17_n90
*651 M1_mult_17_n88
*652 M1_mult_17_n87
*653 M1_mult_17_n86
*654 M1_mult_17_n85
*655 M1_mult_17_n84
*656 M1_mult_17_n83
*657 M1_mult_17_n82
*658 M1_mult_17_n81
*659 M1_mult_17_n80
*660 M1_mult_17_n79
*661 M1_mult_17_n78
*662 M1_mult_17_n77
*663 M1_mult_17_n76
*664 M1_mult_17_n74
*665 M1_mult_17_n73
*666 M1_mult_17_n72
*667 M1_mult_17_n71
*668 M1_mult_17_n70
*669 M1_mult_17_n69
*670 M1_mult_17_n68
*671 M1_mult_17_n67
*672 M1_mult_17_n66
*673 M1_mult_17_n64
*674 M1_mult_17_n63
*675 M1_mult_17_n62
*676 M1_mult_17_n61
*677 M1_mult_17_n60
*678 M1_mult_17_n59
*679 M1_mult_17_n45
*680 M1_mult_17_n44
*681 M1_mult_17_n43
*682 M1_mult_17_n42
*683 M1_mult_17_n41
*684 M1_mult_17_n40
*685 M1_mult_17_n39
*686 M1_mult_17_n38
*687 M1_mult_17_n37
*688 M1_mult_17_n36
*689 M1_mult_17_n35
*690 M1_mult_17_n34
*691 M1_mult_17_n33
*692 M1_mult_17_n32
*693 M2_MULT_0_
*694 M2_MULT_27_
*695 M2_mult_17_n763
*696 M2_mult_17_n762
*697 M2_mult_17_n761
*698 M2_mult_17_n760
*699 M2_mult_17_n759
*700 M2_mult_17_n758
*701 M2_mult_17_n757
*702 M2_mult_17_n756
*703 M2_mult_17_n755
*704 M2_mult_17_n754
*705 M2_mult_17_n753
*706 M2_mult_17_n752
*707 M2_mult_17_n751
*708 M2_mult_17_n750
*709 M2_mult_17_n749
*710 M2_mult_17_n748
*711 M2_mult_17_n747
*712 M2_mult_17_n746
*713 M2_mult_17_n745
*714 M2_mult_17_n744
*715 M2_mult_17_n743
*716 M2_mult_17_n742
*717 M2_mult_17_n741
*718 M2_mult_17_n740
*719 M2_mult_17_n739
*720 M2_mult_17_n738
*721 M2_mult_17_n737
*722 M2_mult_17_n736
*723 M2_mult_17_n735
*724 M2_mult_17_n734
*725 M2_mult_17_n733
*726 M2_mult_17_n732
*727 M2_mult_17_n731
*728 M2_mult_17_n730
*729 M2_mult_17_n729
*730 M2_mult_17_n728
*731 M2_mult_17_n727
*732 M2_mult_17_n726
*733 M2_mult_17_n725
*734 M2_mult_17_n724
*735 M2_mult_17_n723
*736 M2_mult_17_n722
*737 M2_mult_17_n721
*738 M2_mult_17_n720
*739 M2_mult_17_n719
*740 M2_mult_17_n718
*741 M2_mult_17_n717
*742 M2_mult_17_n716
*743 M2_mult_17_n715
*744 M2_mult_17_n714
*745 M2_mult_17_n713
*746 M2_mult_17_n712
*747 M2_mult_17_n711
*748 M2_mult_17_n710
*749 M2_mult_17_n709
*750 M2_mult_17_n708
*751 M2_mult_17_n707
*752 M2_mult_17_n706
*753 M2_mult_17_n705
*754 M2_mult_17_n704
*755 M2_mult_17_n703
*756 M2_mult_17_n702
*757 M2_mult_17_n701
*758 M2_mult_17_n700
*759 M2_mult_17_n699
*760 M2_mult_17_n698
*761 M2_mult_17_n697
*762 M2_mult_17_n696
*763 M2_mult_17_n695
*764 M2_mult_17_n694
*765 M2_mult_17_n693
*766 M2_mult_17_n692
*767 M2_mult_17_n691
*768 M2_mult_17_n690
*769 M2_mult_17_n689
*770 M2_mult_17_n688
*771 M2_mult_17_n687
*772 M2_mult_17_n686
*773 M2_mult_17_n685
*774 M2_mult_17_n684
*775 M2_mult_17_n683
*776 M2_mult_17_n682
*777 M2_mult_17_n681
*778 M2_mult_17_n680
*779 M2_mult_17_n679
*780 M2_mult_17_n678
*781 M2_mult_17_n677
*782 M2_mult_17_n676
*783 M2_mult_17_n675
*784 M2_mult_17_n674
*785 M2_mult_17_n673
*786 M2_mult_17_n672
*787 M2_mult_17_n671
*788 M2_mult_17_n670
*789 M2_mult_17_n669
*790 M2_mult_17_n668
*791 M2_mult_17_n667
*792 M2_mult_17_n666
*793 M2_mult_17_n665
*794 M2_mult_17_n664
*795 M2_mult_17_n663
*796 M2_mult_17_n662
*797 M2_mult_17_n661
*798 M2_mult_17_n660
*799 M2_mult_17_n659
*800 M2_mult_17_n658
*801 M2_mult_17_n657
*802 M2_mult_17_n656
*803 M2_mult_17_n655
*804 M2_mult_17_n654
*805 M2_mult_17_n653
*806 M2_mult_17_n652
*807 M2_mult_17_n651
*808 M2_mult_17_n650
*809 M2_mult_17_n649
*810 M2_mult_17_n648
*811 M2_mult_17_n647
*812 M2_mult_17_n646
*813 M2_mult_17_n645
*814 M2_mult_17_n644
*815 M2_mult_17_n643
*816 M2_mult_17_n642
*817 M2_mult_17_n641
*818 M2_mult_17_n640
*819 M2_mult_17_n639
*820 M2_mult_17_n638
*821 M2_mult_17_n637
*822 M2_mult_17_n636
*823 M2_mult_17_n635
*824 M2_mult_17_n634
*825 M2_mult_17_n633
*826 M2_mult_17_n632
*827 M2_mult_17_n631
*828 M2_mult_17_n630
*829 M2_mult_17_n629
*830 M2_mult_17_n628
*831 M2_mult_17_n627
*832 M2_mult_17_n626
*833 M2_mult_17_n625
*834 M2_mult_17_n624
*835 M2_mult_17_n623
*836 M2_mult_17_n622
*837 M2_mult_17_n621
*838 M2_mult_17_n620
*839 M2_mult_17_n619
*840 M2_mult_17_n618
*841 M2_mult_17_n617
*842 M2_mult_17_n616
*843 M2_mult_17_n615
*844 M2_mult_17_n614
*845 M2_mult_17_n613
*846 M2_mult_17_n612
*847 M2_mult_17_n611
*848 M2_mult_17_n610
*849 M2_mult_17_n609
*850 M2_mult_17_n608
*851 M2_mult_17_n607
*852 M2_mult_17_n606
*853 M2_mult_17_n605
*854 M2_mult_17_n604
*855 M2_mult_17_n602
*856 M2_mult_17_n601
*857 M2_mult_17_n600
*858 M2_mult_17_n599
*859 M2_mult_17_n598
*860 M2_mult_17_n597
*861 M2_mult_17_n596
*862 M2_mult_17_n595
*863 M2_mult_17_n594
*864 M2_mult_17_n593
*865 M2_mult_17_n592
*866 M2_mult_17_n591
*867 M2_mult_17_n590
*868 M2_mult_17_n589
*869 M2_mult_17_n588
*870 M2_mult_17_n587
*871 M2_mult_17_n586
*872 M2_mult_17_n585
*873 M2_mult_17_n584
*874 M2_mult_17_n583
*875 M2_mult_17_n582
*876 M2_mult_17_n581
*877 M2_mult_17_n356
*878 M2_mult_17_n355
*879 M2_mult_17_n354
*880 M2_mult_17_n353
*881 M2_mult_17_n352
*882 M2_mult_17_n351
*883 M2_mult_17_n350
*884 M2_mult_17_n349
*885 M2_mult_17_n348
*886 M2_mult_17_n347
*887 M2_mult_17_n346
*888 M2_mult_17_n345
*889 M2_mult_17_n342
*890 M2_mult_17_n341
*891 M2_mult_17_n340
*892 M2_mult_17_n339
*893 M2_mult_17_n338
*894 M2_mult_17_n337
*895 M2_mult_17_n336
*896 M2_mult_17_n335
*897 M2_mult_17_n334
*898 M2_mult_17_n333
*899 M2_mult_17_n332
*900 M2_mult_17_n331
*901 M2_mult_17_n330
*902 M2_mult_17_n329
*903 M2_mult_17_n328
*904 M2_mult_17_n327
*905 M2_mult_17_n326
*906 M2_mult_17_n325
*907 M2_mult_17_n324
*908 M2_mult_17_n323
*909 M2_mult_17_n322
*910 M2_mult_17_n321
*911 M2_mult_17_n320
*912 M2_mult_17_n319
*913 M2_mult_17_n318
*914 M2_mult_17_n316
*915 M2_mult_17_n315
*916 M2_mult_17_n313
*917 M2_mult_17_n312
*918 M2_mult_17_n311
*919 M2_mult_17_n310
*920 M2_mult_17_n309
*921 M2_mult_17_n308
*922 M2_mult_17_n307
*923 M2_mult_17_n306
*924 M2_mult_17_n305
*925 M2_mult_17_n304
*926 M2_mult_17_n303
*927 M2_mult_17_n302
*928 M2_mult_17_n301
*929 M2_mult_17_n300
*930 M2_mult_17_n298
*931 M2_mult_17_n297
*932 M2_mult_17_n296
*933 M2_mult_17_n295
*934 M2_mult_17_n294
*935 M2_mult_17_n293
*936 M2_mult_17_n292
*937 M2_mult_17_n291
*938 M2_mult_17_n290
*939 M2_mult_17_n289
*940 M2_mult_17_n288
*941 M2_mult_17_n287
*942 M2_mult_17_n286
*943 M2_mult_17_n285
*944 M2_mult_17_n283
*945 M2_mult_17_n282
*946 M2_mult_17_n281
*947 M2_mult_17_n280
*948 M2_mult_17_n279
*949 M2_mult_17_n277
*950 M2_mult_17_n276
*951 M2_mult_17_n275
*952 M2_mult_17_n274
*953 M2_mult_17_n273
*954 M2_mult_17_n272
*955 M2_mult_17_n271
*956 M2_mult_17_n270
*957 M2_mult_17_n268
*958 M2_mult_17_n267
*959 M2_mult_17_n266
*960 M2_mult_17_n265
*961 M2_mult_17_n264
*962 M2_mult_17_n263
*963 M2_mult_17_n262
*964 M2_mult_17_n261
*965 M2_mult_17_n260
*966 M2_mult_17_n259
*967 M2_mult_17_n258
*968 M2_mult_17_n257
*969 M2_mult_17_n256
*970 M2_mult_17_n255
*971 M2_mult_17_n251
*972 M2_mult_17_n250
*973 M2_mult_17_n249
*974 M2_mult_17_n248
*975 M2_mult_17_n247
*976 M2_mult_17_n225
*977 M2_mult_17_n224
*978 M2_mult_17_n223
*979 M2_mult_17_n222
*980 M2_mult_17_n221
*981 M2_mult_17_n220
*982 M2_mult_17_n219
*983 M2_mult_17_n218
*984 M2_mult_17_n217
*985 M2_mult_17_n216
*986 M2_mult_17_n215
*987 M2_mult_17_n214
*988 M2_mult_17_n213
*989 M2_mult_17_n212
*990 M2_mult_17_n211
*991 M2_mult_17_n210
*992 M2_mult_17_n209
*993 M2_mult_17_n208
*994 M2_mult_17_n207
*995 M2_mult_17_n206
*996 M2_mult_17_n205
*997 M2_mult_17_n204
*998 M2_mult_17_n203
*999 M2_mult_17_n202
*1000 M2_mult_17_n201
*1001 M2_mult_17_n200
*1002 M2_mult_17_n199
*1003 M2_mult_17_n198
*1004 M2_mult_17_n197
*1005 M2_mult_17_n196
*1006 M2_mult_17_n195
*1007 M2_mult_17_n194
*1008 M2_mult_17_n193
*1009 M2_mult_17_n192
*1010 M2_mult_17_n191
*1011 M2_mult_17_n190
*1012 M2_mult_17_n189
*1013 M2_mult_17_n188
*1014 M2_mult_17_n187
*1015 M2_mult_17_n186
*1016 M2_mult_17_n185
*1017 M2_mult_17_n184
*1018 M2_mult_17_n183
*1019 M2_mult_17_n182
*1020 M2_mult_17_n181
*1021 M2_mult_17_n180
*1022 M2_mult_17_n179
*1023 M2_mult_17_n178
*1024 M2_mult_17_n177
*1025 M2_mult_17_n176
*1026 M2_mult_17_n175
*1027 M2_mult_17_n174
*1028 M2_mult_17_n173
*1029 M2_mult_17_n172
*1030 M2_mult_17_n171
*1031 M2_mult_17_n170
*1032 M2_mult_17_n169
*1033 M2_mult_17_n168
*1034 M2_mult_17_n167
*1035 M2_mult_17_n166
*1036 M2_mult_17_n165
*1037 M2_mult_17_n164
*1038 M2_mult_17_n163
*1039 M2_mult_17_n162
*1040 M2_mult_17_n161
*1041 M2_mult_17_n160
*1042 M2_mult_17_n159
*1043 M2_mult_17_n158
*1044 M2_mult_17_n157
*1045 M2_mult_17_n156
*1046 M2_mult_17_n155
*1047 M2_mult_17_n154
*1048 M2_mult_17_n153
*1049 M2_mult_17_n152
*1050 M2_mult_17_n151
*1051 M2_mult_17_n150
*1052 M2_mult_17_n149
*1053 M2_mult_17_n148
*1054 M2_mult_17_n147
*1055 M2_mult_17_n146
*1056 M2_mult_17_n145
*1057 M2_mult_17_n144
*1058 M2_mult_17_n143
*1059 M2_mult_17_n142
*1060 M2_mult_17_n141
*1061 M2_mult_17_n140
*1062 M2_mult_17_n139
*1063 M2_mult_17_n138
*1064 M2_mult_17_n137
*1065 M2_mult_17_n136
*1066 M2_mult_17_n135
*1067 M2_mult_17_n134
*1068 M2_mult_17_n133
*1069 M2_mult_17_n132
*1070 M2_mult_17_n131
*1071 M2_mult_17_n130
*1072 M2_mult_17_n128
*1073 M2_mult_17_n127
*1074 M2_mult_17_n126
*1075 M2_mult_17_n125
*1076 M2_mult_17_n124
*1077 M2_mult_17_n123
*1078 M2_mult_17_n122
*1079 M2_mult_17_n121
*1080 M2_mult_17_n120
*1081 M2_mult_17_n119
*1082 M2_mult_17_n118
*1083 M2_mult_17_n117
*1084 M2_mult_17_n116
*1085 M2_mult_17_n115
*1086 M2_mult_17_n114
*1087 M2_mult_17_n113
*1088 M2_mult_17_n112
*1089 M2_mult_17_n111
*1090 M2_mult_17_n110
*1091 M2_mult_17_n109
*1092 M2_mult_17_n108
*1093 M2_mult_17_n106
*1094 M2_mult_17_n105
*1095 M2_mult_17_n104
*1096 M2_mult_17_n103
*1097 M2_mult_17_n102
*1098 M2_mult_17_n101
*1099 M2_mult_17_n100
*1100 M2_mult_17_n99
*1101 M2_mult_17_n98
*1102 M2_mult_17_n97
*1103 M2_mult_17_n96
*1104 M2_mult_17_n95
*1105 M2_mult_17_n94
*1106 M2_mult_17_n93
*1107 M2_mult_17_n92
*1108 M2_mult_17_n91
*1109 M2_mult_17_n90
*1110 M2_mult_17_n88
*1111 M2_mult_17_n87
*1112 M2_mult_17_n86
*1113 M2_mult_17_n85
*1114 M2_mult_17_n84
*1115 M2_mult_17_n83
*1116 M2_mult_17_n82
*1117 M2_mult_17_n81
*1118 M2_mult_17_n80
*1119 M2_mult_17_n79
*1120 M2_mult_17_n78
*1121 M2_mult_17_n77
*1122 M2_mult_17_n76
*1123 M2_mult_17_n74
*1124 M2_mult_17_n73
*1125 M2_mult_17_n72
*1126 M2_mult_17_n71
*1127 M2_mult_17_n70
*1128 M2_mult_17_n69
*1129 M2_mult_17_n68
*1130 M2_mult_17_n67
*1131 M2_mult_17_n66
*1132 M2_mult_17_n64
*1133 M2_mult_17_n63
*1134 M2_mult_17_n62
*1135 M2_mult_17_n61
*1136 M2_mult_17_n60
*1137 M2_mult_17_n59
*1138 M2_mult_17_n45
*1139 M2_mult_17_n44
*1140 M2_mult_17_n43
*1141 M2_mult_17_n42
*1142 M2_mult_17_n41
*1143 M2_mult_17_n40
*1144 M2_mult_17_n39
*1145 M2_mult_17_n38
*1146 M2_mult_17_n37
*1147 M2_mult_17_n36
*1148 M2_mult_17_n35
*1149 M2_mult_17_n34
*1150 M2_mult_17_n33
*1151 M2_mult_17_n32
*1152 M3_MULT_0_
*1153 M3_MULT_27_
*1154 M3_mult_17_n763
*1155 M3_mult_17_n762
*1156 M3_mult_17_n761
*1157 M3_mult_17_n760
*1158 M3_mult_17_n759
*1159 M3_mult_17_n758
*1160 M3_mult_17_n757
*1161 M3_mult_17_n756
*1162 M3_mult_17_n755
*1163 M3_mult_17_n754
*1164 M3_mult_17_n753
*1165 M3_mult_17_n752
*1166 M3_mult_17_n751
*1167 M3_mult_17_n750
*1168 M3_mult_17_n749
*1169 M3_mult_17_n748
*1170 M3_mult_17_n747
*1171 M3_mult_17_n746
*1172 M3_mult_17_n745
*1173 M3_mult_17_n744
*1174 M3_mult_17_n743
*1175 M3_mult_17_n742
*1176 M3_mult_17_n741
*1177 M3_mult_17_n740
*1178 M3_mult_17_n739
*1179 M3_mult_17_n738
*1180 M3_mult_17_n737
*1181 M3_mult_17_n736
*1182 M3_mult_17_n735
*1183 M3_mult_17_n734
*1184 M3_mult_17_n733
*1185 M3_mult_17_n732
*1186 M3_mult_17_n731
*1187 M3_mult_17_n730
*1188 M3_mult_17_n729
*1189 M3_mult_17_n728
*1190 M3_mult_17_n727
*1191 M3_mult_17_n726
*1192 M3_mult_17_n725
*1193 M3_mult_17_n724
*1194 M3_mult_17_n723
*1195 M3_mult_17_n722
*1196 M3_mult_17_n721
*1197 M3_mult_17_n720
*1198 M3_mult_17_n719
*1199 M3_mult_17_n718
*1200 M3_mult_17_n717
*1201 M3_mult_17_n716
*1202 M3_mult_17_n715
*1203 M3_mult_17_n714
*1204 M3_mult_17_n713
*1205 M3_mult_17_n712
*1206 M3_mult_17_n711
*1207 M3_mult_17_n710
*1208 M3_mult_17_n709
*1209 M3_mult_17_n708
*1210 M3_mult_17_n707
*1211 M3_mult_17_n706
*1212 M3_mult_17_n705
*1213 M3_mult_17_n704
*1214 M3_mult_17_n703
*1215 M3_mult_17_n702
*1216 M3_mult_17_n701
*1217 M3_mult_17_n700
*1218 M3_mult_17_n699
*1219 M3_mult_17_n698
*1220 M3_mult_17_n697
*1221 M3_mult_17_n696
*1222 M3_mult_17_n695
*1223 M3_mult_17_n694
*1224 M3_mult_17_n693
*1225 M3_mult_17_n692
*1226 M3_mult_17_n691
*1227 M3_mult_17_n690
*1228 M3_mult_17_n689
*1229 M3_mult_17_n688
*1230 M3_mult_17_n687
*1231 M3_mult_17_n686
*1232 M3_mult_17_n685
*1233 M3_mult_17_n684
*1234 M3_mult_17_n683
*1235 M3_mult_17_n682
*1236 M3_mult_17_n681
*1237 M3_mult_17_n680
*1238 M3_mult_17_n679
*1239 M3_mult_17_n678
*1240 M3_mult_17_n677
*1241 M3_mult_17_n676
*1242 M3_mult_17_n675
*1243 M3_mult_17_n674
*1244 M3_mult_17_n673
*1245 M3_mult_17_n672
*1246 M3_mult_17_n671
*1247 M3_mult_17_n670
*1248 M3_mult_17_n669
*1249 M3_mult_17_n668
*1250 M3_mult_17_n667
*1251 M3_mult_17_n666
*1252 M3_mult_17_n665
*1253 M3_mult_17_n664
*1254 M3_mult_17_n663
*1255 M3_mult_17_n662
*1256 M3_mult_17_n661
*1257 M3_mult_17_n660
*1258 M3_mult_17_n659
*1259 M3_mult_17_n658
*1260 M3_mult_17_n657
*1261 M3_mult_17_n656
*1262 M3_mult_17_n655
*1263 M3_mult_17_n654
*1264 M3_mult_17_n653
*1265 M3_mult_17_n652
*1266 M3_mult_17_n651
*1267 M3_mult_17_n650
*1268 M3_mult_17_n649
*1269 M3_mult_17_n648
*1270 M3_mult_17_n647
*1271 M3_mult_17_n646
*1272 M3_mult_17_n645
*1273 M3_mult_17_n644
*1274 M3_mult_17_n643
*1275 M3_mult_17_n642
*1276 M3_mult_17_n641
*1277 M3_mult_17_n640
*1278 M3_mult_17_n639
*1279 M3_mult_17_n638
*1280 M3_mult_17_n637
*1281 M3_mult_17_n636
*1282 M3_mult_17_n635
*1283 M3_mult_17_n634
*1284 M3_mult_17_n633
*1285 M3_mult_17_n632
*1286 M3_mult_17_n631
*1287 M3_mult_17_n630
*1288 M3_mult_17_n629
*1289 M3_mult_17_n628
*1290 M3_mult_17_n627
*1291 M3_mult_17_n626
*1292 M3_mult_17_n625
*1293 M3_mult_17_n624
*1294 M3_mult_17_n623
*1295 M3_mult_17_n622
*1296 M3_mult_17_n621
*1297 M3_mult_17_n620
*1298 M3_mult_17_n619
*1299 M3_mult_17_n618
*1300 M3_mult_17_n617
*1301 M3_mult_17_n616
*1302 M3_mult_17_n615
*1303 M3_mult_17_n614
*1304 M3_mult_17_n613
*1305 M3_mult_17_n612
*1306 M3_mult_17_n611
*1307 M3_mult_17_n610
*1308 M3_mult_17_n609
*1309 M3_mult_17_n608
*1310 M3_mult_17_n607
*1311 M3_mult_17_n606
*1312 M3_mult_17_n605
*1313 M3_mult_17_n604
*1314 M3_mult_17_n602
*1315 M3_mult_17_n601
*1316 M3_mult_17_n600
*1317 M3_mult_17_n599
*1318 M3_mult_17_n598
*1319 M3_mult_17_n597
*1320 M3_mult_17_n596
*1321 M3_mult_17_n595
*1322 M3_mult_17_n594
*1323 M3_mult_17_n593
*1324 M3_mult_17_n592
*1325 M3_mult_17_n591
*1326 M3_mult_17_n590
*1327 M3_mult_17_n589
*1328 M3_mult_17_n588
*1329 M3_mult_17_n587
*1330 M3_mult_17_n586
*1331 M3_mult_17_n585
*1332 M3_mult_17_n584
*1333 M3_mult_17_n583
*1334 M3_mult_17_n582
*1335 M3_mult_17_n581
*1336 M3_mult_17_n356
*1337 M3_mult_17_n355
*1338 M3_mult_17_n354
*1339 M3_mult_17_n353
*1340 M3_mult_17_n352
*1341 M3_mult_17_n351
*1342 M3_mult_17_n350
*1343 M3_mult_17_n349
*1344 M3_mult_17_n348
*1345 M3_mult_17_n347
*1346 M3_mult_17_n346
*1347 M3_mult_17_n345
*1348 M3_mult_17_n342
*1349 M3_mult_17_n341
*1350 M3_mult_17_n340
*1351 M3_mult_17_n339
*1352 M3_mult_17_n338
*1353 M3_mult_17_n337
*1354 M3_mult_17_n336
*1355 M3_mult_17_n335
*1356 M3_mult_17_n334
*1357 M3_mult_17_n333
*1358 M3_mult_17_n332
*1359 M3_mult_17_n331
*1360 M3_mult_17_n330
*1361 M3_mult_17_n329
*1362 M3_mult_17_n328
*1363 M3_mult_17_n327
*1364 M3_mult_17_n326
*1365 M3_mult_17_n325
*1366 M3_mult_17_n324
*1367 M3_mult_17_n323
*1368 M3_mult_17_n322
*1369 M3_mult_17_n321
*1370 M3_mult_17_n320
*1371 M3_mult_17_n319
*1372 M3_mult_17_n318
*1373 M3_mult_17_n316
*1374 M3_mult_17_n315
*1375 M3_mult_17_n313
*1376 M3_mult_17_n312
*1377 M3_mult_17_n311
*1378 M3_mult_17_n310
*1379 M3_mult_17_n309
*1380 M3_mult_17_n308
*1381 M3_mult_17_n307
*1382 M3_mult_17_n306
*1383 M3_mult_17_n305
*1384 M3_mult_17_n304
*1385 M3_mult_17_n303
*1386 M3_mult_17_n302
*1387 M3_mult_17_n301
*1388 M3_mult_17_n300
*1389 M3_mult_17_n298
*1390 M3_mult_17_n297
*1391 M3_mult_17_n296
*1392 M3_mult_17_n295
*1393 M3_mult_17_n294
*1394 M3_mult_17_n293
*1395 M3_mult_17_n292
*1396 M3_mult_17_n291
*1397 M3_mult_17_n290
*1398 M3_mult_17_n289
*1399 M3_mult_17_n288
*1400 M3_mult_17_n287
*1401 M3_mult_17_n286
*1402 M3_mult_17_n285
*1403 M3_mult_17_n283
*1404 M3_mult_17_n282
*1405 M3_mult_17_n281
*1406 M3_mult_17_n280
*1407 M3_mult_17_n279
*1408 M3_mult_17_n277
*1409 M3_mult_17_n276
*1410 M3_mult_17_n275
*1411 M3_mult_17_n274
*1412 M3_mult_17_n273
*1413 M3_mult_17_n272
*1414 M3_mult_17_n271
*1415 M3_mult_17_n270
*1416 M3_mult_17_n268
*1417 M3_mult_17_n267
*1418 M3_mult_17_n266
*1419 M3_mult_17_n265
*1420 M3_mult_17_n264
*1421 M3_mult_17_n263
*1422 M3_mult_17_n262
*1423 M3_mult_17_n261
*1424 M3_mult_17_n260
*1425 M3_mult_17_n259
*1426 M3_mult_17_n258
*1427 M3_mult_17_n257
*1428 M3_mult_17_n256
*1429 M3_mult_17_n255
*1430 M3_mult_17_n251
*1431 M3_mult_17_n250
*1432 M3_mult_17_n249
*1433 M3_mult_17_n248
*1434 M3_mult_17_n247
*1435 M3_mult_17_n225
*1436 M3_mult_17_n224
*1437 M3_mult_17_n223
*1438 M3_mult_17_n222
*1439 M3_mult_17_n221
*1440 M3_mult_17_n220
*1441 M3_mult_17_n219
*1442 M3_mult_17_n218
*1443 M3_mult_17_n217
*1444 M3_mult_17_n216
*1445 M3_mult_17_n215
*1446 M3_mult_17_n214
*1447 M3_mult_17_n213
*1448 M3_mult_17_n212
*1449 M3_mult_17_n211
*1450 M3_mult_17_n210
*1451 M3_mult_17_n209
*1452 M3_mult_17_n208
*1453 M3_mult_17_n207
*1454 M3_mult_17_n206
*1455 M3_mult_17_n205
*1456 M3_mult_17_n204
*1457 M3_mult_17_n203
*1458 M3_mult_17_n202
*1459 M3_mult_17_n201
*1460 M3_mult_17_n200
*1461 M3_mult_17_n199
*1462 M3_mult_17_n198
*1463 M3_mult_17_n197
*1464 M3_mult_17_n196
*1465 M3_mult_17_n195
*1466 M3_mult_17_n194
*1467 M3_mult_17_n193
*1468 M3_mult_17_n192
*1469 M3_mult_17_n191
*1470 M3_mult_17_n190
*1471 M3_mult_17_n189
*1472 M3_mult_17_n188
*1473 M3_mult_17_n187
*1474 M3_mult_17_n186
*1475 M3_mult_17_n185
*1476 M3_mult_17_n184
*1477 M3_mult_17_n183
*1478 M3_mult_17_n182
*1479 M3_mult_17_n181
*1480 M3_mult_17_n180
*1481 M3_mult_17_n179
*1482 M3_mult_17_n178
*1483 M3_mult_17_n177