*SPEF "IEEE 1481-1998"
*DESIGN "IIR_filter_LA"
*DATE "Fri Nov 19 20:58:31 2021"
*VENDOR "Cadence Design Systems, Inc."
*PROGRAM "Innovus"
*VERSION "17.11-s080_1"
*DESIGN_FLOW "COUPLING C" "PIN_CAP NONE" "NAME_SCOPE LOCAL"
*DIVIDER /
*DELIMITER :
*BUS_DELIMITER []
*T_UNIT 1 NS
*C_UNIT 1 PF
*R_UNIT 1 OHM
*L_UNIT 1 HENRY

// MMMC spef file for corner 'my_rc'

*NAME_MAP

*1 CLK
*2 RST_n
*3 VIN
*4 VOUT
*5 DIN[13]
*6 DIN[12]
*7 DIN[11]
*8 DIN[10]
*9 DIN[9]
*10 DIN[8]
*11 DIN[7]
*12 DIN[6]
*13 DIN[5]
*14 DIN[4]
*15 DIN[3]
*16 DIN[2]
*17 DIN[1]
*18 DIN[0]
*19 B0[13]
*20 B0[12]
*21 B0[11]
*22 B0[10]
*23 B0[9]
*24 B0[8]
*25 B0[7]
*26 B0[6]
*27 B0[5]
*28 B0[4]
*29 B0[3]
*30 B0[2]
*31 B0[1]
*32 B0[0]
*33 B1[13]
*34 B1[12]
*35 B1[11]
*36 B1[10]
*37 B1[9]
*38 B1[8]
*39 B1[7]
*40 B1[6]
*41 B1[5]
*42 B1[4]
*43 B1[3]
*44 B1[2]
*45 B1[1]
*46 B1[0]
*47 A1[13]
*48 A1[12]
*49 A1[11]
*50 A1[10]
*51 A1[9]
*52 A1[8]
*53 A1[7]
*54 A1[6]
*55 A1[5]
*56 A1[4]
*57 A1[3]
*58 A1[2]
*59 A1[1]
*60 A1[0]
*61 DOUT[13]
*62 DOUT[12]
*63 DOUT[11]
*64 DOUT[10]
*65 DOUT[9]
*66 DOUT[8]
*67 DOUT[7]
*68 DOUT[6]
*69 DOUT[5]
*70 DOUT[4]
*71 DOUT[3]
*72 DOUT[2]
*73 DOUT[1]
*74 DOUT[0]
*75 FE_OFN3_VIN
*76 FE_OFN2_VIN
*77 FE_OFN1_VIN
*78 FE_OFN0_RST_n
*79 FE_DBTN0_P6_0
*80 RC1out
*81 RC2out
*82 RC3out
*83 fullPIPE
*84 A4out_14
*85 R_Control_1_n3
*86 R_Control_1_n2
*87 R_Control_1_n1
*88 R_Control_2_n6
*89 R_Control_2_n5
*90 R_Control_2_n4
*91 R_Control_3_n6
*92 R_Control_3_n5
*93 R_Control_3_n4
*94 R_Control_4_n6
*95 R_Control_4_n5
*96 R_Control_4_n4
*97 RIN_n42
*98 RIN_n41
*99 RIN_n40
*100 RIN_n39
*101 RIN_n38
*102 RIN_n37
*103 RIN_n36
*104 RIN_n35
*105 RIN_n34
*106 RIN_n33
*107 RIN_n32
*108 RIN_n31
*109 RIN_n30
*110 RIN_n29
*111 RIN_n28
*112 RIN_n27
*113 RIN_n26
*114 RIN_n25
*115 RIN_n24
*116 RIN_n23
*117 RIN_n22
*118 RIN_n21
*119 RIN_n20
*120 RIN_n19
*121 RIN_n18
*122 RIN_n17
*123 RIN_n16
*124 RIN_n15
*125 RIN_n14
*126 RIN_n13
*127 RIN_n12
*128 RIN_n11
*129 RIN_n10
*130 RIN_n9
*131 RIN_n8
*132 RIN_n7
*133 RIN_n6
*134 RIN_n5
*135 RIN_n4
*136 RIN_n3
*137 RIN_n2
*138 RIN_n1
*139 R1_n89
*140 R1_n88
*141 R1_n87
*142 R1_n86
*143 R1_n85
*144 R1_n84
*145 R1_n83
*146 R1_n82
*147 R1_n81
*148 R1_n80
*149 R1_n79
*150 R1_n78
*151 R1_n77
*152 R1_n76
*153 R1_n75
*154 R1_n74
*155 R1_n73
*156 R1_n72
*157 R1_n71
*158 R1_n70
*159 R1_n69
*160 R1_n68
*161 R1_n67
*162 R1_n66
*163 R1_n65
*164 R1_n64
*165 R1_n63
*166 R1_n62
*167 R1_n61
*168 R1_n60
*169 R1_n59
*170 R1_n58
*171 R1_n57
*172 R1_n56
*173 R1_n55
*174 R1_n54
*175 R1_n53
*176 R1_n52
*177 R1_n51
*178 R1_n50
*179 R1_n49
*180 R1_n48
*181 Rp1_n45
*182 Rp1_n44
*183 Rp1_n43
*184 Rp1_n42
*185 Rp1_n41
*186 Rp1_n40
*187 Rp1_n39
*188 Rp1_n38
*189 Rp1_n37
*190 Rp1_n36
*191 Rp1_n35
*192 Rp1_n34
*193 Rp1_n33
*194 Rp1_n32
*195 Rp1_n31
*196 Rp1_n30
*197 Rp1_n29
*198 Rp1_n28
*199 Rp1_n27
*200 Rp1_n26
*201 Rp1_n25
*202 Rp1_n24
*203 Rp1_n23
*204 Rp1_n22
*205 Rp1_n21
*206 Rp1_n20
*207 Rp1_n19
*208 Rp1_n18
*209 Rp1_n17
*210 Rp1_n16
*211 Rp1_n15
*212 Rp1_n14
*213 Rp1_n13
*214 Rp1_n12
*215 Rp1_n11
*216 Rp1_n10
*217 Rp1_n9
*218 Rp1_n8
*219 Rp1_n7
*220 Rp1_n6
*221 Rp1_n5
*222 Rp1_n4
*223 Rp1_n3
*224 Rp1_n2
*225 Rp1_n1
*226 Rp2_n95
*227 Rp2_n94
*228 Rp2_n93
*229 Rp2_n92
*230 Rp2_n91
*231 Rp2_n90
*232 Rp2_n89
*233 Rp2_n88
*234 Rp2_n87
*235 Rp2_n86
*236 Rp2_n85
*237 Rp2_n84
*238 Rp2_n83
*239 Rp2_n82
*240 Rp2_n81
*241 Rp2_n80
*242 Rp2_n79
*243 Rp2_n78
*244 Rp2_n77
*245 Rp2_n76
*246 Rp2_n75
*247 Rp2_n74
*248 Rp2_n73
*249 Rp2_n72
*250 Rp2_n71
*251 Rp2_n70
*252 Rp2_n69
*253 Rp2_n68
*254 Rp2_n67
*255 Rp2_n66
*256 Rp2_n65
*257 Rp2_n64
*258 Rp2_n63
*259 Rp2_n62
*260 Rp2_n61
*261 Rp2_n60
*262 Rp2_n59
*263 Rp2_n58
*264 Rp2_n57
*265 Rp2_n56
*266 Rp2_n55
*267 Rp2_n54
*268 Rp2_n53
*269 Rp2_n52
*270 Rp2_n51
*271 Rp3_n95
*272 Rp3_n94
*273 Rp3_n93
*274 Rp3_n92
*275 Rp3_n91
*276 Rp3_n90
*277 Rp3_n89
*278 Rp3_n88
*279 Rp3_n87
*280 Rp3_n86
*281 Rp3_n85
*282 Rp3_n84
*283 Rp3_n83
*284 Rp3_n82
*285 Rp3_n81
*286 Rp3_n80
*287 Rp3_n79
*288 Rp3_n78
*289 Rp3_n77
*290 Rp3_n76
*291 Rp3_n75
*292 Rp3_n74
*293 Rp3_n73
*294 Rp3_n72
*295 Rp3_n71
*296 Rp3_n70
*297 Rp3_n69
*298 Rp3_n68
*299 Rp3_n67
*300 Rp3_n66
*301 Rp3_n65
*302 Rp3_n64
*303 Rp3_n63
*304 Rp3_n62
*305 Rp3_n61
*306 Rp3_n60
*307 Rp3_n59
*308 Rp3_n58
*309 Rp3_n57
*310 Rp3_n56
*311 Rp3_n55
*312 Rp3_n54
*313 Rp3_n53
*314 Rp3_n52
*315 Rp3_n51
*316 ROUT_n89
*317 ROUT_n88
*318 ROUT_n87
*319 ROUT_n86
*320 ROUT_n85
*321 ROUT_n84
*322 ROUT_n83
*323 ROUT_n82
*324 ROUT_n81
*325 ROUT_n80
*326 ROUT_n79
*327 ROUT_n78
*328 ROUT_n77
*329 ROUT_n76
*330 ROUT_n75
*331 ROUT_n74
*332 ROUT_n73
*333 ROUT_n72
*334 ROUT_n71
*335 ROUT_n70
*336 ROUT_n69
*337 ROUT_n68
*338 ROUT_n67
*339 ROUT_n66
*340 ROUT_n65
*341 ROUT_n64
*342 ROUT_n63
*343 ROUT_n62
*344 ROUT_n61
*345 ROUT_n60
*346 ROUT_n59
*347 ROUT_n58
*348 ROUT_n57
*349 ROUT_n56
*350 ROUT_n55
*351 ROUT_n54
*352 ROUT_n53
*353 ROUT_n52
*354 ROUT_n51
*355 ROUT_n50
*356 ROUT_n49
*357 ROUT_n48
*358 A2_sub_17_n15
*359 A2_sub_17_n14
*360 A2_sub_17_n13
*361 A2_sub_17_n12
*362 A2_sub_17_n11
*363 A2_sub_17_n10
*364 A2_sub_17_n9
*365 A2_sub_17_n8
*366 A2_sub_17_n7
*367 A2_sub_17_n6
*368 A2_sub_17_n5
*369 A2_sub_17_n4
*370 A2_sub_17_n3
*371 A2_sub_17_n2
*372 A2_sub_17_n1
*373 A3_add_17_n2
*374 A4_add_17_n5
*375 A4_add_17_n4
*376 A4_add_17_n3
*377 A4_add_17_n2
*378 M1_MULT_0_
*379 M1_mult_20_n709
*380 M1_mult_20_n708
*381 M1_mult_20_n707
*382 M1_mult_20_n706
*383 M1_mult_20_n705
*384 M1_mult_20_n704
*385 M1_mult_20_n703
*386 M1_mult_20_n702
*387 M1_mult_20_n701
*388 M1_mult_20_n700
*389 M1_mult_20_n699
*390 M1_mult_20_n698
*391 M1_mult_20_n697
*392 M1_mult_20_n696
*393 M1_mult_20_n695
*394 M1_mult_20_n694
*395 M1_mult_20_n693
*396 M1_mult_20_n692
*397 M1_mult_20_n691
*398 M1_mult_20_n690
*399 M1_mult_20_n689
*400 M1_mult_20_n688
*401 M1_mult_20_n687
*402 M1_mult_20_n686
*403 M1_mult_20_n685
*404 M1_mult_20_n684
*405 M1_mult_20_n683
*406 M1_mult_20_n682
*407 M1_mult_20_n681
*408 M1_mult_20_n680
*409 M1_mult_20_n679
*410 M1_mult_20_n678
*411 M1_mult_20_n677
*412 M1_mult_20_n676
*413 M1_mult_20_n675
*414 M1_mult_20_n674
*415 M1_mult_20_n673
*416 M1_mult_20_n672
*417 M1_mult_20_n671
*418 M1_mult_20_n670
*419 M1_mult_20_n669
*420 M1_mult_20_n668
*421 M1_mult_20_n667
*422 M1_mult_20_n666
*423 M1_mult_20_n665
*424 M1_mult_20_n664
*425 M1_mult_20_n663
*426 M1_mult_20_n662
*427 M1_mult_20_n661
*428 M1_mult_20_n660
*429 M1_mult_20_n659
*430 M1_mult_20_n658
*431 M1_mult_20_n657
*432 M1_mult_20_n656
*433 M1_mult_20_n655
*434 M1_mult_20_n654
*435 M1_mult_20_n653
*436 M1_mult_20_n652
*437 M1_mult_20_n651
*438 M1_mult_20_n650
*439 M1_mult_20_n649
*440 M1_mult_20_n648
*441 M1_mult_20_n647
*442 M1_mult_20_n646
*443 M1_mult_20_n645
*444 M1_mult_20_n644
*445 M1_mult_20_n643
*446 M1_mult_20_n642
*447 M1_mult_20_n641
*448 M1_mult_20_n640
*449 M1_mult_20_n639
*450 M1_mult_20_n638
*451 M1_mult_20_n637
*452 M1_mult_20_n636
*453 M1_mult_20_n635
*454 M1_mult_20_n634
*455 M1_mult_20_n633
*456 M1_mult_20_n632
*457 M1_mult_20_n631
*458 M1_mult_20_n630
*459 M1_mult_20_n629
*460 M1_mult_20_n628
*461 M1_mult_20_n627
*462 M1_mult_20_n626
*463 M1_mult_20_n625
*464 M1_mult_20_n624
*465 M1_mult_20_n623
*466 M1_mult_20_n622
*467 M1_mult_20_n621
*468 M1_mult_20_n620
*469 M1_mult_20_n619
*470 M1_mult_20_n618
*471 M1_mult_20_n617
*472 M1_mult_20_n616
*473 M1_mult_20_n615
*474 M1_mult_20_n614
*475 M1_mult_20_n613
*476 M1_mult_20_n612
*477 M1_mult_20_n611
*478 M1_mult_20_n610
*479 M1_mult_20_n609
*480 M1_mult_20_n608
*481 M1_mult_20_n607
*482 M1_mult_20_n606
*483 M1_mult_20_n605
*484 M1_mult_20_n604
*485 M1_mult_20_n603
*486 M1_mult_20_n602
*487 M1_mult_20_n601
*488 M1_mult_20_n600
*489 M1_mult_20_n599
*490 M1_mult_20_n598
*491 M1_mult_20_n597
*492 M1_mult_20_n596
*493 M1_mult_20_n595
*494 M1_mult_20_n594
*495 M1_mult_20_n593
*496 M1_mult_20_n592
*497 M1_mult_20_n591
*498 M1_mult_20_n590
*499 M1_mult_20_n589
*500 M1_mult_20_n588
*501 M1_mult_20_n587
*502 M1_mult_20_n586
*503 M1_mult_20_n585
*504 M1_mult_20_n584
*505 M1_mult_20_n583
*506 M1_mult_20_n582
*507 M1_mult_20_n581
*508 M1_mult_20_n580
*509 M1_mult_20_n579
*510 M1_mult_20_n578
*511 M1_mult_20_n577
*512 M1_mult_20_n576
*513 M1_mult_20_n575
*514 M1_mult_20_n574
*515 M1_mult_20_n573
*516 M1_mult_20_n572
*517 M1_mult_20_n571
*518 M1_mult_20_n570
*519 M1_mult_20_n569
*520 M1_mult_20_n568
*521 M1_mult_20_n567
*522 M1_mult_20_n566
*523 M1_mult_20_n565
*524 M1_mult_20_n564
*525 M1_mult_20_n563
*526 M1_mult_20_n562
*527 M1_mult_20_n561
*528 M1_mult_20_n560
*529 M1_mult_20_n559
*530 M1_mult_20_n558
*531 M1_mult_20_n557
*532 M1_mult_20_n556
*533 M1_mult_20_n555
*534 M1_mult_20_n554
*535 M1_mult_20_n553
*536 M1_mult_20_n552
*537 M1_mult_20_n551
*538 M1_mult_20_n550
*539 M1_mult_20_n549
*540 M1_mult_20_n548
*541 M1_mult_20_n547
*542 M1_mult_20_n546
*543 M1_mult_20_n545
*544 M1_mult_20_n544
*545 M1_mult_20_n543
*546 M1_mult_20_n542
*547 M1_mult_20_n541
*548 M1_mult_20_n540
*549 M1_mult_20_n539
*550 M1_mult_20_n538
*551 M1_mult_20_n537
*552 M1_mult_20_n536
*553 M1_mult_20_n308
*554 M1_mult_20_n307
*555 M1_mult_20_n306
*556 M1_mult_20_n305
*557 M1_mult_20_n304
*558 M1_mult_20_n303
*559 M1_mult_20_n302
*560 M1_mult_20_n301
*561 M1_mult_20_n300
*562 M1_mult_20_n299
*563 M1_mult_20_n298
*564 M1_mult_20_n295
*565 M1_mult_20_n294
*566 M1_mult_20_n293
*567 M1_mult_20_n292
*568 M1_mult_20_n291
*569 M1_mult_20_n290
*570 M1_mult_20_n289
*571 M1_mult_20_n288
*572 M1_mult_20_n287
*573 M1_mult_20_n286
*574 M1_mult_20_n285
*575 M1_mult_20_n284
*576 M1_mult_20_n282
*577 M1_mult_20_n281
*578 M1_mult_20_n280
*579 M1_mult_20_n279
*580 M1_mult_20_n278
*581 M1_mult_20_n277
*582 M1_mult_20_n276
*583 M1_mult_20_n275
*584 M1_mult_20_n274
*585 M1_mult_20_n273
*586 M1_mult_20_n271
*587 M1_mult_20_n270
*588 M1_mult_20_n268
*589 M1_mult_20_n267
*590 M1_mult_20_n266
*591 M1_mult_20_n265
*592 M1_mult_20_n264
*593 M1_mult_20_n263
*594 M1_mult_20_n262
*595 M1_mult_20_n261
*596 M1_mult_20_n260
*597 M1_mult_20_n259
*598 M1_mult_20_n258
*599 M1_mult_20_n257
*600 M1_mult_20_n256
*601 M1_mult_20_n254
*602 M1_mult_20_n253
*603 M1_mult_20_n252
*604 M1_mult_20_n251
*605 M1_mult_20_n250
*606 M1_mult_20_n249
*607 M1_mult_20_n248
*608 M1_mult_20_n247
*609 M1_mult_20_n246
*610 M1_mult_20_n245
*611 M1_mult_20_n244
*612 M1_mult_20_n243
*613 M1_mult_20_n242
*614 M1_mult_20_n240
*615 M1_mult_20_n239
*616 M1_mult_20_n238
*617 M1_mult_20_n237
*618 M1_mult_20_n235
*619 M1_mult_20_n234
*620 M1_mult_20_n233
*621 M1_mult_20_n232
*622 M1_mult_20_n231
*623 M1_mult_20_n230
*624 M1_mult_20_n229
*625 M1_mult_20_n228
*626 M1_mult_20_n226
*627 M1_mult_20_n225
*628 M1_mult_20_n224
*629 M1_mult_20_n223
*630 M1_mult_20_n222
*631 M1_mult_20_n221
*632 M1_mult_20_n220
*633 M1_mult_20_n219
*634 M1_mult_20_n218
*635 M1_mult_20_n217
*636 M1_mult_20_n216
*637 M1_mult_20_n215
*638 M1_mult_20_n214
*639 M1_mult_20_n210
*640 M1_mult_20_n209
*641 M1_mult_20_n208
*642 M1_mult_20_n207
*643 M1_mult_20_n206
*644 M1_mult_20_n184
*645 M1_mult_20_n183
*646 M1_mult_20_n182
*647 M1_mult_20_n181
*648 M1_mult_20_n180
*649 M1_mult_20_n179
*650 M1_mult_20_n178
*651 M1_mult_20_n177
*652 M1_mult_20_n176
*653 M1_mult_20_n175
*654 M1_mult_20_n174
*655 M1_mult_20_n173
*656 M1_mult_20_n172
*657 M1_mult_20_n171
*658 M1_mult_20_n170
*659 M1_mult_20_n169
*660 M1_mult_20_n168
*661 M1_mult_20_n167
*662 M1_mult_20_n166
*663 M1_mult_20_n165
*664 M1_mult_20_n164
*665 M1_mult_20_n163
*666 M1_mult_20_n162
*667 M1_mult_20_n161
*668 M1_mult_20_n160
*669 M1_mult_20_n159
*670 M1_mult_20_n158
*671 M1_mult_20_n157
*672 M1_mult_20_n156
*673 M1_mult_20_n155
*674 M1_mult_20_n154
*675 M1_mult_20_n153
*676 M1_mult_20_n152
*677 M1_mult_20_n151
*678 M1_mult_20_n150
*679 M1_mult_20_n149
*680 M1_mult_20_n148
*681 M1_mult_20_n147
*682 M1_mult_20_n146
*683 M1_mult_20_n145
*684 M1_mult_20_n144
*685 M1_mult_20_n143
*686 M1_mult_20_n142
*687 M1_mult_20_n141
*688 M1_mult_20_n140
*689 M1_mult_20_n139
*690 M1_mult_20_n138
*691 M1_mult_20_n137
*692 M1_mult_20_n136
*693 M1_mult_20_n135
*694 M1_mult_20_n134
*695 M1_mult_20_n133
*696 M1_mult_20_n132
*697 M1_mult_20_n131
*698 M1_mult_20_n130
*699 M1_mult_20_n129
*700 M1_mult_20_n128
*701 M1_mult_20_n127
*702 M1_mult_20_n126
*703 M1_mult_20_n125
*704 M1_mult_20_n124
*705 M1_mult_20_n123
*706 M1_mult_20_n122
*707 M1_mult_20_n121
*708 M1_mult_20_n120
*709 M1_mult_20_n119
*710 M1_mult_20_n118
*711 M1_mult_20_n117
*712 M1_mult_20_n116
*713 M1_mult_20_n115
*714 M1_mult_20_n114
*715 M1_mult_20_n113
*716 M1_mult_20_n112
*717 M1_mult_20_n111
*718 M1_mult_20_n110
*719 M1_mult_20_n109
*720 M1_mult_20_n108
*721 M1_mult_20_n107
*722 M1_mult_20_n106
*723 M1_mult_20_n105
*724 M1_mult_20_n104
*725 M1_mult_20_n103
*726 M1_mult_20_n102
*727 M1_mult_20_n101
*728 M1_mult_20_n99
*729 M1_mult_20_n98
*730 M1_mult_20_n97
*731 M1_mult_20_n96
*732 M1_mult_20_n95
*733 M1_mult_20_n94
*734 M1_mult_20_n93
*735 M1_mult_20_n92
*736 M1_mult_20_n91
*737 M1_mult_20_n90
*738 M1_mult_20_n89
*739 M1_mult_20_n88
*740 M1_mult_20_n87
*741 M1_mult_20_n86
*742 M1_mult_20_n85
*743 M1_mult_20_n84
*744 M1_mult_20_n83
*745 M1_mult_20_n82
*746 M1_mult_20_n81
*747 M1_mult_20_n80
*748 M1_mult_20_n79
*749 M1_mult_20_n77
*750 M1_mult_20_n76
*751 M1_mult_20_n75
*752 M1_mult_20_n74
*753 M1_mult_20_n73
*754 M1_mult_20_n72
*755 M1_mult_20_n71
*756 M1_mult_20_n70
*757 M1_mult_20_n69
*758 M1_mult_20_n68
*759 M1_mult_20_n67
*760 M1_mult_20_n66
*761 M1_mult_20_n65
*762 M1_mult_20_n64
*763 M1_mult_20_n63
*764 M1_mult_20_n62
*765 M1_mult_20_n61
*766 M1_mult_20_n59
*767 M1_mult_20_n58
*768 M1_mult_20_n57
*769 M1_mult_20_n56
*770 M1_mult_20_n55
*771 M1_mult_20_n54
*772 M1_mult_20_n53
*773 M1_mult_20_n52
*774 M1_mult_20_n51
*775 M1_mult_20_n50
*776 M1_mult_20_n49
*777 M1_mult_20_n48
*778 M1_mult_20_n47
*779 M1_mult_20_n45
*780 M1_mult_20_n44
*781 M1_mult_20_n43
*782 M1_mult_20_n42
*783 M1_mult_20_n41
*784 M1_mult_20_n40
*785 M1_mult_20_n39
*786 M1_mult_20_n38
*787 M1_mult_20_n37
*788 M1_mult_20_n35
*789 M1_mult_20_n34
*790 M1_mult_20_n33
*791 M1_mult_20_n32
*792 M1_mult_20_n31
*793 M1_mult_20_n30
*794 M1_mult_20_n17
*795 M1_mult_20_n16
*796 M1_mult_20_n15
*797 M1_mult_20_n14
*798 M1_mult_20_n13
*799 M1_mult_20_n12
*800 M1_mult_20_n11
*801 M1_mult_20_n10
*802 M1_mult_20_n9
*803 M1_mult_20_n8
*804 M1_mult_20_n7
*805 M1_mult_20_n6
*806 M1_mult_20_n5
*807 M1_mult_20_n4
*808 M2_MULT_0_
*809 M2_mult_20_n760
*810 M2_mult_20_n759
*811 M2_mult_20_n758
*812 M2_mult_20_n756
*813 M2_mult_20_n754
*814 M2_mult_20_n753
*815 M2_mult_20_n752
*816 M2_mult_20_n751
*817 M2_mult_20_n750
*818 M2_mult_20_n749
*819 M2_mult_20_n748
*820 M2_mult_20_n747
*821 M2_mult_20_n746
*822 M2_mult_20_n745
*823 M2_mult_20_n744
*824 M2_mult_20_n743
*825 M2_mult_20_n742
*826 M2_mult_20_n741
*827 M2_mult_20_n740
*828 M2_mult_20_n739
*829 M2_mult_20_n738
*830 M2_mult_20_n737
*831 M2_mult_20_n736
*832 M2_mult_20_n735
*833 M2_mult_20_n734
*834 M2_mult_20_n733
*835 M2_mult_20_n732
*836 M2_mult_20_n731
*837 M2_mult_20_n730
*838 M2_mult_20_n729
*839 M2_mult_20_n728
*840 M2_mult_20_n727
*841 M2_mult_20_n726
*842 M2_mult_20_n725
*843 M2_mult_20_n724
*844 M2_mult_20_n723
*845 M2_mult_20_n722
*846 M2_mult_20_n721
*847 M2_mult_20_n720
*848 M2_mult_20_n719
*849 M2_mult_20_n718
*850 M2_mult_20_n717
*851 M2_mult_20_n716
*852 M2_mult_20_n715
*853 M2_mult_20_n714
*854 M2_mult_20_n713
*855 M2_mult_20_n712
*856 M2_mult_20_n711
*857 M2_mult_20_n710
*858 M2_mult_20_n709
*859 M2_mult_20_n708
*860 M2_mult_20_n707
*861 M2_mult_20_n706
*862 M2_mult_20_n705
*863 M2_mult_20_n704
*864 M2_mult_20_n703
*865 M2_mult_20_n702
*866 M2_mult_20_n701
*867 M2_mult_20_n700
*868 M2_mult_20_n699
*869 M2_mult_20_n698
*870 M2_mult_20_n697
*871 M2_mult_20_n696
*872 M2_mult_20_n695
*873 M2_mult_20_n694
*874 M2_mult_20_n693
*875 M2_mult_20_n692
*876 M2_mult_20_n691
*877 M2_mult_20_n690
*878 M2_mult_20_n689
*879 M2_mult_20_n688
*880 M2_mult_20_n687
*881 M2_mult_20_n686
*882 M2_mult_20_n685
*883 M2_mult_20_n684
*884 M2_mult_20_n683
*885 M2_mult_20_n682
*886 M2_mult_20_n681
*887 M2_mult_20_n679
*888 M2_mult_20_n678
*889 M2_mult_20_n677
*890 M2_mult_20_n676
*891 M2_mult_20_n675
*892 M2_mult_20_n674
*893 M2_mult_20_n673
*894 M2_mult_20_n672
*895 M2_mult_20_n671
*896 M2_mult_20_n670
*897 M2_mult_20_n669
*898 M2_mult_20_n668
*899 M2_mult_20_n667
*900 M2_mult_20_n666
*901 M2_mult_20_n665
*902 M2_mult_20_n664
*903 M2_mult_20_n663
*904 M2_mult_20_n662
*905 M2_mult_20_n661
*906 M2_mult_20_n660
*907 M2_mult_20_n659
*908 M2_mult_20_n658
*909 M2_mult_20_n657
*910 M2_mult_20_n656
*911 M2_mult_20_n655
*912 M2_mult_20_n654
*913 M2_mult_20_n653
*914 M2_mult_20_n652
*915 M2_mult_20_n651
*916 M2_mult_20_n650
*917 M2_mult_20_n648
*918 M2_mult_20_n647
*919 M2_mult_20_n646
*920 M2_mult_20_n645
*921 M2_mult_20_n644
*922 M2_mult_20_n643
*923 M2_mult_20_n642
*924 M2_mult_20_n641
*925 M2_mult_20_n640
*926 M2_mult_20_n639
*927 M2_mult_20_n638
*928 M2_mult_20_n637
*929 M2_mult_20_n636
*930 M2_mult_20_n635
*931 M2_mult_20_n634
*932 M2_mult_20_n633
*933 M2_mult_20_n632
*934 M2_mult_20_n631
*935 M2_mult_20_n630
*936 M2_mult_20_n628
*937 M2_mult_20_n627
*938 M2_mult_20_n626
*939 M2_mult_20_n624
*940 M2_mult_20_n623
*941 M2_mult_20_n622
*942 M2_mult_20_n620
*943 M2_mult_20_n619
*944 M2_mult_20_n618
*945 M2_mult_20_n617
*946 M2_mult_20_n616
*947 M2_mult_20_n615
*948 M2_mult_20_n614
*949 M2_mult_20_n613
*950 M2_mult_20_n612
*951 M2_mult_20_n611
*952 M2_mult_20_n610
*953 M2_mult_20_n609
*954 M2_mult_20_n608
*955 M2_mult_20_n607
*956 M2_mult_20_n606
*957 M2_mult_20_n605
*958 M2_mult_20_n604
*959 M2_mult_20_n602
*960 M2_mult_20_n601
*961 M2_mult_20_n600
*962 M2_mult_20_n599
*963 M2_mult_20_n598
*964 M2_mult_20_n597
*965 M2_mult_20_n596
*966 M2_mult_20_n595
*967 M2_mult_20_n594
*968 M2_mult_20_n593
*969 M2_mult_20_n592
*970 M2_mult_20_n591
*971 M2_mult_20_n590
*972 M2_mult_20_n589
*973 M2_mult_20_n588
*974 M2_mult_20_n587
*975 M2_mult_20_n586
*976 M2_mult_20_n585
*977 M2_mult_20_n584
*978 M2_mult_20_n583
*979 M2_mult_20_n582
*980 M2_mult_20_n581
*981 M2_mult_20_n356
*982 M2_mult_20_n355
*983 M2_mult_20_n354
*984 M2_mult_20_n353
*985 M2_mult_20_n352
*986 M2_mult_20_n351
*987 M2_mult_20_n350
*988 M2_mult_20_n349
*989 M2_mult_20_n348
*990 M2_mult_20_n347
*991 M2_mult_20_n346
*992 M2_mult_20_n345
*993 M2_mult_20_n342
*994 M2_mult_20_n341
*995 M2_mult_20_n340
*996 M2_mult_20_n339
*997 M2_mult_20_n338
*998 M2_mult_20_n337
*999 M2_mult_20_n336
*1000 M2_mult_20_n335
*1001 M2_mult_20_n334
*1002 M2_mult_20_n333
*1003 M2_mult_20_n332
*1004 M2_mult_20_n331
*1005 M2_mult_20_n330
*1006 M2_mult_20_n329
*1007 M2_mult_20_n328
*1008 M2_mult_20_n327
*1009 M2_mult_20_n326
*1010 M2_mult_20_n325
*1011 M2_mult_20_n324
*1012 M2_mult_20_n323
*1013 M2_mult_20_n322
*1014 M2_mult_20_n321
*1015 M2_mult_20_n320
*1016 M2_mult_20_n319
*1017 M2_mult_20_n318
*1018 M2_mult_20_n316
*1019 M2_mult_20_n315
*1020 M2_mult_20_n313
*1021 M2_mult_20_n312
*1022 M2_mult_20_n311
*1023 M2_mult_20_n310
*1024 M2_mult_20_n309
*1025 M2_mult_20_n308
*1026 M2_mult_20_n307
*1027 M2_mult_20_n306
*1028 M2_mult_20_n305
*1029 M2_mult_20_n304
*1030 M2_mult_20_n303
*1031 M2_mult_20_n302
*1032 M2_mult_20_n301
*1033 M2_mult_20_n300
*1034 M2_mult_20_n298
*1035 M2_mult_20_n297
*1036 M2_mult_20_n296
*1037 M2_mult_20_n295
*1038 M2_mult_20_n294
*1039 M2_mult_20_n293
*1040 M2_mult_20_n292
*1041 M2_mult_20_n291
*1042 M2_mult_20_n290
*1043 M2_mult_20_n289
*1044 M2_mult_20_n288
*1045 M2_mult_20_n287
*1046 M2_mult_20_n286
*1047 M2_mult_20_n285
*1048 M2_mult_20_n283
*1049 M2_mult_20_n282
*1050 M2_mult_20_n281
*1051 M2_mult_20_n280
*1052 M2_mult_20_n279
*1053 M2_mult_20_n277
*1054 M2_mult_20_n276
*1055 M2_mult_20_n275
*1056 M2_mult_20_n274
*1057 M2_mult_20_n273
*1058 M2_mult_20_n272
*1059 M2_mult_20_n271
*1060 M2_mult_20_n270
*1061 M2_mult_20_n268
*1062 M2_mult_20_n267
*1063 M2_mult_20_n266
*1064 M2_mult_20_n265
*1065 M2_mult_20_n264
*1066 M2_mult_20_n263
*1067 M2_mult_20_n262
*1068 M2_mult_20_n261
*1069 M2_mult_20_n260
*1070 M2_mult_20_n259
*1071 M2_mult_20_n258
*1072 M2_mult_20_n257
*1073 M2_mult_20_n256
*1074 M2_mult_20_n255
*1075 M2_mult_20_n251
*1076 M2_mult_20_n250
*1077 M2_mult_20_n249
*1078 M2_mult_20_n248
*1079 M2_mult_20_n247
*1080 M2_mult_20_n225
*1081 M2_mult_20_n224
*1082 M2_mult_20_n223
*1083 M2_mult_20_n222
*1084 M2_mult_20_n221
*1085 M2_mult_20_n220
*1086 M2_mult_20_n219
*1087 M2_mult_20_n218
*1088 M2_mult_20_n217
*1089 M2_mult_20_n216
*1090 M2_mult_20_n215
*1091 M2_mult_20_n214
*1092 M2_mult_20_n213
*1093 M2_mult_20_n212
*1094 M2_mult_20_n211
*1095 M2_mult_20_n210
*1096 M2_mult_20_n209
*1097 M2_mult_20_n208
*1098 M2_mult_20_n207
*1099 M2_mult_20_n206
*1100 M2_mult_20_n205
*1101 M2_mult_20_n204
*1102 M2_mult_20_n203
*1103 M2_mult_20_n202
*1104 M2_mult_20_n201
*1105 M2_mult_20_n200
*1106 M2_mult_20_n199
*1107 M2_mult_20_n198
*1108 M2_mult_20_n197
*1109 M2_mult_20_n196
*1110 M2_mult_20_n195
*1111 M2_mult_20_n194
*1112 M2_mult_20_n193
*1113 M2_mult_20_n192
*1114 M2_mult_20_n191
*1115 M2_mult_20_n190
*1116 M2_mult_20_n189
*1117 M2_mult_20_n188
*1118 M2_mult_20_n187
*1119 M2_mult_20_n186
*1120 M2_mult_20_n185
*1121 M2_mult_20_n184
*1122 M2_mult_20_n183
*1123 M2_mult_20_n182
*1124 M2_mult_20_n181
*1125 M2_mult_20_n180
*1126 M2_mult_20_n179
*1127 M2_mult_20_n178
*1128 M2_mult_20_n177
*1129 M2_mult_20_n176
*1130 M2_mult_20_n175
*1131 M2_mult_20_n174
*1132 M2_mult_20_n173
*1133 M2_mult_20_n172
*1134 M2_mult_20_n171
*1135 M2_mult_20_n170
*1136 M2_mult_20_n169
*1137 M2_mult_20_n168
*1138 M2_mult_20_n167
*1139 M2_mult_20_n166
*1140 M2_mult_20_n165
*1141 M2_mult_20_n164
*1142 M2_mult_20_n163
*1143 M2_mult_20_n162
*1144 M2_mult_20_n161
*1145 M2_mult_20_n160
*1146 M2_mult_20_n159
*1147 M2_mult_20_n158
*1148 M2_mult_20_n157
*1149 M2_mult_20_n156
*1150 M2_mult_20_n155
*1151 M2_mult_20_n154
*1152 M2_mult_20_n153
*1153 M2_mult_20_n152
*1154 M2_mult_20_n151
*1155 M2_mult_20_n150
*1156 M2_mult_20_n149
*1157 M2_mult_20_n148
*1158 M2_mult_20_n147
*1159 M2_mult_20_n146
*1160 M2_mult_20_n145
*1161 M2_mult_20_n144
*1162 M2_mult_20_n143
*1163 M2_mult_20_n142
*1164 M2_mult_20_n141
*1165 M2_mult_20_n140
*1166 M2_mult_20_n139
*1167 M2_mult_20_n138
*1168 M2_mult_20_n137
*1169 M2_mult_20_n136
*1170 M2_mult_20_n135
*1171 M2_mult_20_n134
*1172 M2_mult_20_n133
*1173 M2_mult_20_n132
*1174 M2_mult_20_n131
*1175 M2_mult_20_n130
*1176 M2_mult_20_n128
*1177 M2_mult_20_n127
*1178 M2_mult_20_n126
*1179 M2_mult_20_n125
*1180 M2_mult_20_n124
*1181 M2_mult_20_n123
*1182 M2_mult_20_n122
*1183 M2_mult_20_n121
*1184 M2_mult_20_n120
*1185 M2_mult_20_n119
*1186 M2_mult_20_n118
*1187 M2_mult_20_n117
*1188 M2_mult_20_n116
*1189 M2_mult_20_n115
*1190 M2_mult_20_n114
*1191 M2_mult_20_n113
*1192 M2_mult_20_n112
*1193 M2_mult_20_n111
*1194 M2_mult_20_n110
*1195 M2_mult_20_n109
*1196 M2_mult_20_n108
*1197 M2_mult_20_n106
*1198 M2_mult_20_n105
*1199 M2_mult_20_n104
*1200 M2_mult_20_n103
*1201 M2_mult_20_n102
*1202 M2_mult_20_n101
*1203 M2_mult_20_n100
*1204 M2_mult_20_n99
*1205 M2_mult_20_n98
*1206 M2_mult_20_n97
*1207 M2_mult_20_n96
*1208 M2_mult_20_n95
*1209 M2_mult_20_n94
*1210 M2_mult_20_n93
*1211 M2_mult_20_n92
*1212 M2_mult_20_n91
*1213 M2_mult_20_n90
*1214 M2_mult_20_n88
*1215 M2_mult_20_n87
*1216 M2_mult_20_n86
*1217 M2_mult_20_n85
*1218 M2_mult_20_n84
*1219 M2_mult_20_n83
*1220 M2_mult_20_n82
*1221 M2_mult_20_n81
*1222 M2_mult_20_n80
*1223 M2_mult_20_n79
*1224 M2_mult_20_n78
*1225 M2_mult_20_n77
*1226 M2_mult_20_n76
*1227 M2_mult_20_n74
*1228 M2_mult_20_n73
*1229 M2_mult_20_n72
*1230 M2_mult_20_n71
*1231 M2_mult_20_n70
*1232 M2_mult_20_n69
*1233 M2_mult_20_n68
*1234 M2_mult_20_n67
*1235 M2_mult_20_n66
*1236 M2_mult_20_n64
*1237 M2_mult_20_n63
*1238 M2_mult_20_n62
*1239 M2_mult_20_n61
*1240 M2_mult_20_n60
*1241 M2_mult_20_n59
*1242 M2_mult_20_n45
*1243 M2_mult_20_n44
*1244 M2_mult_20_n43
*1245 M2_mult_20_n42
*1246 M2_mult_20_n41
*1247 M2_mult_20_n40
*1248 M2_mult_20_n39
*1249 M2_mult_20_n38
*1250 M2_mult_20_n37
*1251 M2_mult_20_n36
*1252 M2_mult_20_n35
*1253 M2_mult_20_n34
*1254 M2_mult_20_n33
*1255 M2_mult_20_n32
*1256 M3_MULT_0_
*1257 M3_mult_20_n763
*1258 M3_mult_20_n762
*1259 M3_mult_20_n761
*1260 M3_mult_20_n760
*1261 M3_mult_20_n759
*1262 M3_mult_20_n758
*1263 M3_mult_20_n757
*1264 M3_mult_20_n756
*1265 M3_mult_20_n755
*1266 M3_mult_20_n754
*1267 M3_mult_20_n753
*1268 M3_mult_20_n752
*1269 M3_mult_20_n751
*1270 M3_mult_20_n750
*1271 M3_mult_20_n749
*1272 M3_mult_20_n748
*1273 M3_mult_20_n747
*1274 M3_mult_20_n746
*1275 M3_mult_20_n745
*1276 M3_mult_20_n744
*1277 M3_mult_20_n743
*1278 M3_mult_20_n742
*1279 M3_mult_20_n741
*1280 M3_mult_20_n740
*1281 M3_mult_20_n739
*1282 M3_mult_20_n738
*1283 M3_mult_20_n737
*1284 M3_mult_20_n736
*1285 M3_mult_20_n735
*1286 M3_mult_20_n734
*1287 M3_mult_20_n733
*1288 M3_mult_20_n732
*1289 M3_mult_20_n731
*1290 M3_mult_20_n730
*1291 M3_mult_20_n729
*1292 M3_mult_20_n728
*1293 M3_mult_20_n727
*1294 M3_mult_20_n726
*1295 M3_mult_20_n725
*1296 M3_mult_20_n724
*1297 M3_mult_20_n723
*1298 M3_mult_20_n722
*1299 M3_mult_20_n721
*1300 M3_mult_20_n720
*1301 M3_mult_20_n719
*1302 M3_mult_20_n718
*1303 M3_mult_20_n717
*1304 M3_mult_20_n716
*1305 M3_mult_20_n715
*1306 M3_mult_20_n714
*1307 M3_mult_20_n713
*1308 M3_mult_20_n712
*1309 M3_mult_20_n711
*1310 M3_mult_20_n710
*1311 M3_mult_20_n709
*1312 M3_mult_20_n708
*1313 M3_mult_20_n707
*1314 M3_mult_20_n706
*1315 M3_mult_20_n705
*1316 M3_mult_20_n704
*1317 M3_mult_20_n703
*1318 M3_mult_20_n702
*1319 M3_mult_20_n701
*1320 M3_mult_20_n700
*1321 M3_mult_20_n699
*1322 M3_mult_20_n698
*1323 M3_mult_20_n697
*1324 M3_mult_20_n696
*1325 M3_mult_20_n695
*1326 M3_mult_20_n694
*1327 M3_mult_20_n693
*1328 M3_mult_20_n692
*1329 M3_mult_20_n691
*1330 M3_mult_20_n690
*1331 M3_mult_20_n689
*1332 M3_mult_20_n688
*1333 M3_mult_20_n687
*1334 M3_mult_20_n686
*1335 M3_mult_20_n685
*1336 M3_mult_20_n684
*1337 M3_mult_20_n683
*1338 M3_mult_20_n682
*1339 M3_mult_20_n681
*1340 M3_mult_20_n680
*1341 M3_mult_20_n679
*1342 M3_mult_20_n678
*1343 M3_mult_20_n677
*1344 M3_mult_20_n676
*1345 M3_mult_20_n675
*1346 M3_mult_20_n674
*1347 M3_mult_20_n673
*1348 M3_mult_20_n672
*1349 M3_mult_20_n671
*1350 M3_mult_20_n670
*1351 M3_mult_20_n669
*1352 M3_mult_20_n668
*1353 M3_mult_20_n667
*1354 M3_mult_20_n666
*1355 M3_mult_20_n665
*1356 M3_mult_20_n664
*1357 M3_mult_20_n663
*1358 M3_mult_20_n662
*1359 M3_mult_20_n661
*1360 M3_mult_20_n660
*1361 M3_mult_20_n659
*1362 M3_mult_20_n658
*1363 M3_mult_20_n657
*1364 M3_mult_20_n656
*1365 M3_mult_20_n655
*1366 M3_mult_20_n654
*1367 M3_mult_20_n653
*1368 M3_mult_20_n652
*1369 M3_mult_20_n651
*1370 M3_mult_20_n650
*1371 M3_mult_20_n649
*1372 M3_mult_20_n648
*1373 M3_mult_20_n647
*1374 M3_mult_20_n646
*1375 M3_mult_20_n645
*1376 M3_mult_20_n644
*1377 M3_mult_20_n643
*1378 M3_mult_20_n642
*1379 M3_mult_20_n641
*1380 M3_mult_20_n640
*1381 M3_mult_20_n639
*1382 M3_mult_20_n638
*1383 M3_mult_20_n637
*1384 M3_mult_20_n636
*1385 M3_mult_20_n635
*1386 M3_mult_20_n634
*1387 M3_mult_20_n633
*1388 M3_mult_20_n632
*1389 M3_mult_20_n631
*1390 M3_mult_20_n630
*1391 M3_mult_20_n629
*1392 M3_mult_20_n628
*1393 M3_mult_20_n627
*1394 M3_mult_20_n626
*1395 M3_mult_20_n625
*1396 M3_mult_20_n624
*1397 M3_mult_20_n623
*1398 M3_mult_20_n622
*1399 M3_mult_20_n621
*1400 M3_mult_20_n620
*1401 M3_mult_20_n619
*1402 M3_mult_20_n618
*1403 M3_mult_20_n617
*1404 M3_mult_20_n616
*1405 M3_mult_20_n615
*1406 M3_mult_20_n614
*1407 M3_mult_20_n613
*1408 M3_mult_20_n612
*1409 M3_mult_20_n611
*1410 M3_mult_20_n610
*1411 M3_mult_20_n609
*1412 M3_mult_20_n608
*1413 M3_mult_20_n607
*1414 M3_mult_20_n606
*1415 M3_mult_20_n605
*1416 M3_mult_20_n604
*1417 M3_mult_20_n603
*1418 M3_mult_20_n602
*1419 M3_mult_20_n601
*1420 M3_mult_20_n600
*1421 M3_mult_20_n599
*1422 M3_mult_20_n598
*1423 M3_mult_20_n597
*1424 M3_mult_20_n596
*1425 M3_mult_20_n595
*1426 M3_mult_20_n594
*1427 M3_mult_20_n593
*1428 M3_mult_20_n592
*1429 M3_mult_20_n591
*1430 M3_mult_20_n590
*1431 M3_mult_20_n589
*1432 M3_mult_20_n588
*1433 M3_mult_20_n587
*1434 M3_mult_20_n586
*1435 M3_mult_20_n585
*1436 M3_mult_20_n584
*1437 M3_mult_20_n583
*1438 M3_mult_20_n582
*1439 M3_mult_20_n581
*1440 M3_mult_20_n356
*1441 M3_mult_20_n355
*1442 M3_mult_20_n354
*1443 M3_mult_20_n353
*1444 M3_mult_20_n352
*1445 M3_mult_20_n351
*1446 M3_mult_20_n350
*1447 M3_mult_20_n349
*1448 M3_mult_20_n348
*1449 M3_mult_20_n347
*1450 M3_mult_20_n346
*1451 M3_mult_20_n345
*1452 M3_mult_20_n342
*1453 M3_mult_20_n341
*1454 M3_mult_20_n340
*1455 M3_mult_20_n339
*1456 M3_mult_20_n338
*1457 M3_mult_20_n337
*1458 M3_mult_20_n336
*1459 M3_mult_20_n335
*1460 M3_mult_20_n334
*1461 M3_mult_20_n333
*1462 M3_mult_20_n332
*1463 M3_mult_20_n331
*1464 M3_mult_20_n330
*1465 M3_mult_20_n329
*1466 M3_mult_20_n328
*1467 M3_mult_20_n327
*1468 M3_mult_20_n326
*1469 M3_mult_20_n325
*1470 M3_mult_20_n324
*1471 M3_mult_20_n323
*1472 M3_mult_20_n322
*1473 M3_mult_20_n321
*1474 M3_mult_20_n320
*1475 M3_mult_20_n319
*1476 M3_mult_20_n318
*1477 M3_mult_20_n316
*1478 M3_mult_20_n315
*1479 M3_mult_20_n313
*1480 M3_mult_20_n312
*1481 M3_mult_20_n311
*1482 M3_mult_20_n310
*1483 M3_mult_20_n309
*1484 M3_mult_20_n308
*1485 M3_mult_20_n307
*1486 M3_mult_20_n306
*1487 M3_mult_20_n305
*1488 M3_mult_20_n304
*1489 M3_mult_20_n303
*1490 M3_mult_20_n302
*1491 M3_mult_20_n301
*1492 M3_mult_20_n300
*1493 M3_mult_20_n298
*1494 M3_mult_20_n297
*1495 M3_mult_20_n296
*1496 M3_mult_20_n295
*1497 M3_mult_20_n294
*1498 M3_mult_20_n293
*1499 M3_mult_20_n292
*1500 M3_mult_20_n291
*1501 M3_mult_20_n290
*1502 M3_mult_20_n289
*1503 M3_mult_20_n288
*1504 M3_mult_20_n287
*1505 M3_mult_20_n286
*1506 M3_mult_20_n285
*1507 M3_mult_20_n283
*1508 M3_mult_20_n282
*1509 M3_mult_20_n281
*1510 M3_mult_20_n280
*1511 M3_mult_20_n279
*1512 M3_mult_20_n277
*1513 M3_mult_20_n276
*1514 M3_mult_20_n275
*1515 M3_mult_20_n274
*1516 M3_mult_20_n273
*1517 M3_mult_20_n272
*1518 M3_mult_20_n271
*1519 M3_mult_20_n270
*1520 M3_mult_20_n268
*1521 M3_mult_20_n267
*1522 M3_mult_20_n266
*1523 M3_mult_20_n265
*1524 M3_mult_20_n264
*1525 M3_mult_20_n263
*1526 M3_mult_20_n262
*1527 M3_mult_20_n261
*1528 M3_mult_20_n260
*1529 M3_mult_20_n259
*1530 M3_mult_20_n258
*1531 M3_mult_20_n257
*1532 M3_mult_20_n256
*1533 M3_mult_20_n255
*1534 M3_mult_20_n251
*1535 M3_mult_20_n250
*1536 M3_mult_20_n249